# Packages
 &PACKAGES
 useGMRedi=.TRUE.
 usePTRACERS=.TRUE.
 useGCHEM=.TRUE.,
 useKPP=.TRUE.,
 useCAL=.TRUE.,
 useMNC=.TRUE.,
 useEXF=.TRUE.,
 useOFFLINE=.TRUE.,
 useDIAGNOSTICS=.TRUE.,
 /
